03_OpenDSS_Circuits/Bellhaven_Circuit_Opendss/UGLineCodes.DSS
New LineCode.1/0-AL-HMWPECN-15KV nPhases=3 R1=0.703206 X1=0.170436 R0=1.291787 X0=0.253749 B1=12.660434 B0=0.000000 NormAmps=267.000000 Units=km
New LineCode.1/0-AL-TRXLPELCJ-15KV nPhases=3 R1=0.697129 X1=0.169361 R0=1.764551 X0=0.751057 B1=12.660434 B0=0.000000 NormAmps=244.000000 Units=km
New LineCode.1/0-AL-TRXLPELCJ-25KV nPhases=3 R1=0.697390 X1=0.180707 R0=1.680672 X0=0.637465 B1=9.817662 B0=0.000000 NormAmps=243.000000 Units=km
