03_OpenDSS_Circuits/Bellhaven_Circuit_Opendss/LinesByPhase.DSS
New Line.259005024 Phases= 3  Bus1=259005026.1.2.3 Bus2=259005021.1.2.3 Length=61.930000 units=m Spacing=8'-ARM-STANDARD-3PH wires=['336-ACSR-B-18X1' '336-ACSR-B-18X1' '336-ACSR-B-18X1' '1/0-ACSR-B-6X1' ]
New Line.259172454 Phases= 2  Bus1=258851372.1.2 Bus2=258851376.1.2 Length=49.550000 units=m Spacing=8'-ARM-STANDARD-2PH wires=['6-CU-B-S' '6-CU-B-S' '2-CU-B-7' ]
New Line.471228029 Phases= 1  Bus1=471228026.3 Bus2=264494246.3 Length=5.650000 units=m Spacing=VERTICAL-1-PH-60-1PH wires=['2-ACSR-B-6X1' '1/0-ACSR-B-6X1' ]
New Line.259005029 Phases= 3  Bus1=259005031.1.2.3 Bus2=259005026.1.2.3 Length=9.970000 units=m Spacing=8'-ARM-STANDARD-3PH wires=['336-ACSR-B-18X1' '336-ACSR-B-18X1' '336-ACSR-B-18X1' '1/0-ACSR-B-6X1' ]
New Line.469799526 Phases= 3  Bus1=469799524.1.2.3 Bus2=258840494.1.2.3 Length=153.400000 units=m Spacing=8'-ARM-STANDARD-3PH wires=['2-ACSR-B-6X1' '2-ACSR-B-6X1' '2-ACSR-B-6X1' '1/0-ACSR-B-6X1' ]
New Line.471228024 Phases= 1  Bus1=258840526.3 Bus2=471228026.3 Length=1.530000 units=m Spacing=VERTICAL-1-PH-60-1PH wires=['2-ACSR-B-6X1' '1/0-ACSR-B-6X1' ]
New Line.259583268 Phases= 3  Bus1=258850750.1.2.3 Bus2=258850754.1.2.3 Length=10.990000 units=m Spacing=8'-ARM-NON-CENTER-POST-3PH wires=['2-ACSR-B-6X1' '2-ACSR-B-6X1' '2-ACSR-B-6X1' '2-ACSR-B-6X1' ]
New Line.259172459 Phases= 3  Bus1=259172460.1.2.3 Bus2=259172461.1.2.3 Length=46.610000 units=m Spacing=8'-ARM-STANDARD-3PH wires=['1/0-ACSR-B-6X1' '1/0-ACSR-B-6X1' '1/0-ACSR-B-6X1' '1/0-ACSR-B-6X1' ]
New Line.469799525 Phases= 3  Bus1=258840489.1.2.3 Bus2=469799524.1.2.3 Length=125.800000 units=m Spacing=8'-ARM-STANDARD-3PH wires=['2-ACSR-B-6X1' '2-ACSR-B-6X1' '2-ACSR-B-6X1' '1/0-ACSR-B-6X1' ]
New Line.259005007 Phases= 3  Bus1=259005009.1.2.3 Bus2=259005002.1.2.3 Length=156.300000 units=m Spacing=HORIZ-LINE-POST-3PH wires=['336-ACSR-WP-18X1' '336-ACSR-WP-18X1' '336-ACSR-WP-18X1' '1/0-ACSR-B-6X1' ]
New Line.259005085 Phases= 3  Bus1=259005082.1.2.3 Bus2=259005087.1.2.3 Length=115.600000 units=m Spacing=8'-ARM-STANDARD-3PH wires=['1/0-ACSR-B-6X1' '1/0-ACSR-B-6X1' '1/0-ACSR-B-6X1' '1/0-ACSR-B-6X1' ]
New Line.263996171 Phases= 3  Bus1=259005082.1.2.3 Bus2=263996173.1.2.3 Length=1.520000 units=m Spacing=8'-ARM-STANDARD-3PH wires=['2-ACSR-B-6X1' '2-ACSR-B-6X1' '2-ACSR-B-6X1' '2-ACSR-B-6X1' ]
New Line.263996176 Phases= 3  Bus1=263996173.1.2.3 Bus2=259545333.1.2.3 Length=28.840000 units=m Spacing=8'-ARM-STANDARD-3PH wires=['2-ACSR-B-6X1' '2-ACSR-B-6X1' '2-ACSR-B-6X1' '2-ACSR-B-6X1' ]
New Line.259005000 Phases= 3  Bus1=259005002.1.2.3 Bus2=259004995.1.2.3 Length=52.080000 units=m Spacing=HORIZ-LINE-POST-3PH wires=['336-ACSR-WP-18X1' '336-ACSR-WP-18X1' '336-ACSR-WP-18X1' '1/0-ACSR-B-6X1' ]
New Line.259005080 Phases= 3  Bus1=259005077.1.2.3 Bus2=259005082.1.2.3 Length=163.300000 units=m Spacing=8'-ARM-STANDARD-3PH wires=['1/0-ACSR-B-6X1' '1/0-ACSR-B-6X1' '1/0-ACSR-B-6X1' '1/0-ACSR-B-6X1' ]
New Line.264504387 Phases= 3  Bus1=258850734.1.2.3 Bus2=264504389.1.2.3 Length=1.510000 units=m Spacing=HORIZ-LINE-POST-3PH wires=['336-ACSR-B-18X1' '336-ACSR-B-18X1' '336-ACSR-B-18X1' '1/0-ACSR-B-6X1' ]
New Line.469544353 Phases= 3  Bus1=258850628.1.2.3 Bus2=264379499.1.2.3 Length=1.520000 units=m Spacing=HORIZ-LINE-POST-3PH wires=['336-ACSR-B-18X1' '336-ACSR-B-18X1' '336-ACSR-B-18X1' '1/0-ACSR-B-6X1' ]
New Line.471228080 Phases= 1  Bus1=258840546.3 Bus2=258840551.3 Length=113.700000 units=m Spacing=VERTICAL-1-PH-60-1PH wires=['2-ACSR-B-6X1' '1/0-ACSR-B-6X1' ]
New Line.259005102 Phases= 3  Bus1=259005099.1.2.3 Bus2=259005104.1.2.3 Length=36.660000 units=m Spacing=8'-ARM-NON-CENTER-POST-3PH wires=['2-ACSR-B-6X1' '2-ACSR-B-6X1' '2-ACSR-B-6X1' '2-ACSR-B-6X1' ]
New Line.263511662 Phases= 3  Bus1=258839921.1.2.3 Bus2=263511664.1.2.3 Length=1.520000 units=m Spacing=8'-ARM-NON-CENTER-POST-3PH wires=['2-ACSR-B-6X1' '2-ACSR-B-6X1' '2-ACSR-B-6X1' '2-ACSR-B-6X1' ]
New Line.263511667 Phases= 3  Bus1=263511664.1.2.3 Bus2=258851476.1.2.3 Length=40.410000 units=m Spacing=8'-ARM-NON-CENTER-POST-3PH wires=['2-ACSR-B-6X1' '2-ACSR-B-6X1' '2-ACSR-B-6X1' '2-ACSR-B-6X1' ]
New Line.460932294 Phases= 1  Bus1=460932291.2 Bus2=258840373.2 Length=94.100000 units=m Spacing=VERTICAL-1-PH-60-1PH wires=['2-ACSR-B-6X1' '1/0-ACSR-B-6X1' ]
New Line.263511743 Phases= 3  Bus1=258840267.1.2.3 Bus2=263511745.1.2.3 Length=1.530000 units=m Spacing=8'-ARM-NON-CENTER-POST-3PH wires=['2-ACSR-B-6X1' '2-ACSR-B-6X1' '2-ACSR-B-6X1' '2-ACSR-B-6X1' ]
New Line.384045894 Phases= 3  Bus1=259004973.1.2.3 Bus2=384045889.1.2.3 Length=124.500000 units=m Spacing=HORIZ-LINE-POST-3PH wires=['336-ACSR-WP-18X1' '336-ACSR-WP-18X1' '336-ACSR-WP-18X1' '1/0-ACSR-B-6X1' ]
New Line.263511748 Phases= 3  Bus1=263511745.1.2.3 Bus2=258851054.1.2.3 Length=49.690000 units=m Spacing=8'-ARM-NON-CENTER-POST-3PH wires=['2-ACSR-B-6X1' '2-ACSR-B-6X1' '2-ACSR-B-6X1' '2-ACSR-B-6X1' ]
New Line.263511721 Phases= 3  Bus1=263511718.1.2.3 Bus2=258851313.1.2.3 Length=50.770000 units=m Spacing=8'-ARM-NON-CENTER-POST-3PH wires=['2-ACSR-B-6X1' '2-ACSR-B-6X1' '2-ACSR-B-6X1' '2-ACSR-B-6X1' ]
New Line.259140636 Phases= 3  Bus1=259005072.1.2.3 Bus2=259005076.1.2.3 Length=57.520000 units=m Spacing=8'-ARM-STANDARD-3PH wires=['1/0-ACSR-B-6X1' '1/0-ACSR-B-6X1' '1/0-ACSR-B-6X1' '1/0-ACSR-B-6X1' ]
New Line.263511725 Phases= 1  Bus1=258840247.1 Bus2=263511727.1 Length=1.520000 units=m Spacing=VERTICAL-1-PH-60-1PH wires=['2-ACSR-B-6X1' '2-ACSR-B-6X1' ]
New Line.263511680 Phases= 3  Bus1=258840012.1.2.3 Bus2=263511682.1.2.3 Length=1.530000 units=m Spacing=8'-ARM-NON-CENTER-POST-3PH wires=['2-ACSR-B-6X1' '2-ACSR-B-6X1' '2-ACSR-B-6X1' '1/0-ACSR-B-6X1' ]
New Line.263511685 Phases= 3  Bus1=263511682.1.2.3 Bus2=258840142.1.2.3 Length=63.230000 units=m Spacing=8'-ARM-NON-CENTER-POST-3PH wires=['2-ACSR-B-6X1' '2-ACSR-B-6X1' '2-ACSR-B-6X1' '1/0-ACSR-B-6X1' ]
New Line.263511689 Phases= 3  Bus1=258840027.1.2.3 Bus2=263511691.1.2.3 Length=1.530000 units=m Spacing=8'-ARM-NON-CENTER-POST-3PH wires=['2-ACSR-B-6X1' '2-ACSR-B-6X1' '2-ACSR-B-6X1' '2-ACSR-B-6X1' ]
New Line.259004983 Phases= 3  Bus1=259004985.1.2.3 Bus2=259004984.1.2.3 Length=83.120000 units=m Spacing=HORIZ-LINE-POST-3PH wires=['336-ACSR-WP-18X1' '336-ACSR-WP-18X1' '336-ACSR-WP-18X1' '1/0-ACSR-B-6X1' ]
New Line.263511703 Phases= 3  Bus1=263511700.1.2.3 Bus2=258840072.1.2.3 Length=28.630000 units=m Spacing=8'-ARM-NON-CENTER-POST-3PH wires=['2-ACSR-B-6X1' '2-ACSR-B-6X1' '2-ACSR-B-6X1' '2-ACSR-B-6X1' ]
New Line.258850663 Phases= 3  Bus1=258850660.1.2.3 Bus2=258850665.1.2.3 Length=75.080000 units=m Spacing=HORIZ-LINE-POST-3PH wires=['336-ACSR-B-18X1' '336-ACSR-B-18X1' '336-ACSR-B-18X1' '1/0-ACSR-B-6X1' ]
New Line.258840465 Phases= 3  Bus1=258840462.1.2.3 Bus2=258840467.1.2.3 Length=87.060000 units=m Spacing=8'-ARM-NON-CENTER-POST-3PH wires=['336-ACSR-WP-18X1' '336-ACSR-WP-18X1' '336-ACSR-WP-18X1' '1/0-ACSR-B-6X1' ]
New Line.258839874 Phases= 3  Bus1=258839871.1.2.3 Bus2=258839876.1.2.3 Length=104.900000 units=m Spacing=8'-ARM-NON-CENTER-POST-3PH wires=['336-ACSR-B-18X1' '336-ACSR-B-18X1' '336-ACSR-B-18X1' '1/0-ACSR-B-6X1' ]
New Line.258840460 Phases= 3  Bus1=258840457.1.2.3 Bus2=258840462.1.2.3 Length=32.490000 units=m Spacing=8'-ARM-NON-CENTER-POST-3PH wires=['336-ACSR-WP-18X1' '336-ACSR-WP-18X1' '336-ACSR-WP-18X1' '1/0-ACSR-B-6X1' ]
New Line.259176597 Phases= 3  Bus1=258850618.1.2.3 Bus2=259121514.1.2.3 Length=28.810000 units=m Spacing=8'-ARM-STANDARD-3PH wires=['2-ACSR-B-6X1' '2-ACSR-B-6X1' '2-ACSR-B-6X1' '2-ACSR-B-6X1' ]
New Line.263511788 Phases= 3  Bus1=258840452.1.2.3 Bus2=263511790.1.2.3 Length=1.520000 units=m Spacing=8'-ARM-NON-CENTER-POST-3PH wires=['2-ACSR-B-6X1' '2-ACSR-B-6X1' '2-ACSR-B-6X1' '2-ACSR-B-6X1' ]
New Line.258850668 Phases= 3  Bus1=258850665.1.2.3 Bus2=258850670.1.2.3 Length=80.590000 units=m Spacing=HORIZ-LINE-POST-3PH wires=['336-ACSR-B-18X1' '336-ACSR-B-18X1' '336-ACSR-B-18X1' '1/0-ACSR-B-6X1' ]
New Line.259004988 Phases= 3  Bus1=259004990.1.2.3 Bus2=259004985.1.2.3 Length=39.950000 units=m Spacing=HORIZ-LINE-POST-3PH wires=['336-ACSR-WP-18X1' '336-ACSR-WP-18X1' '336-ACSR-WP-18X1' '1/0-ACSR-B-6X1' ]
New Line.263638665 Phases= 1  Bus1=258840515.3 Bus2=263638667.3 Length=1.520000 units=m Spacing=VERTICAL-1-PH-60-1PH wires=['2-ACSR-B-6X1' '2-ACSR-B-6X1' ]
New Line.258839879 Phases= 3  Bus1=258839876.1.2.3 Bus2=258839881.1.2.3 Length=19.660000 units=m Spacing=8'-ARM-NON-CENTER-POST-3PH wires=['336-ACSR-B-18X1' '336-ACSR-B-18X1' '336-ACSR-B-18X1' '1/0-ACSR-B-6X1' ]
New Line.258850763 Phases= 3  Bus1=258850760.1.2.3 Bus2=258850765.1.2.3 Length=4.670000 units=m Spacing=8'-ARM-NON-CENTER-POST-3PH wires=['2-ACSR-B-6X1' '2-ACSR-B-6X1' '2-ACSR-B-6X1' '2-ACSR-B-6X1' ]
New Line.264494249 Phases= 1  Bus1=264494246.3 Bus2=258840531.3 Length=152.400000 units=m Spacing=VERTICAL-1-PH-60-1PH wires=['2-ACSR-B-6X1' '1/0-ACSR-B-6X1' ]
New Line.258850643 Phases= 3  Bus1=258850638.1.2.3 Bus2=258850645.1.2.3 Length=151.900000 units=m Spacing=HORIZ-LINE-POST-3PH wires=['336-ACSR-B-18X1' '336-ACSR-B-18X1' '336-ACSR-B-18X1' '1/0-ACSR-B-6X1' ]
New Line.258850768 Phases= 3  Bus1=258850765.1.2.3 Bus2=258850770.1.2.3 Length=26.730000 units=m Spacing=8'-ARM-NON-CENTER-POST-3PH wires=['2-ACSR-B-6X1' '2-ACSR-B-6X1' '2-ACSR-B-6X1' '2-ACSR-B-6X1' ]
New Line.258839971 Phases= 3  Bus1=258839968.1.2.3 Bus2=258839973.1.2.3 Length=47.350000 units=m Spacing=8'-ARM-NON-CENTER-POST-3PH wires=['336-ACSR-B-18X1' '336-ACSR-B-18X1' '336-ACSR-B-18X1' '1/0-ACSR-B-6X1' ]
New Line.258839857 Phases= 3  Bus1=258839854.1.2.3 Bus2=258839859.1.2.3 Length=27.730000 units=m Spacing=8'-ARM-NON-CENTER-POST-3PH wires=['336-ACSR-B-18X1' '336-ACSR-B-18X1' '336-ACSR-B-18X1' '1/0-ACSR-B-6X1' ]
New Line.258839852 Phases= 3  Bus1=258839840.1.2.3 Bus2=258839854.1.2.3 Length=19.050000 units=m Spacing=8'-ARM-NON-CENTER-POST-3PH wires=['336-ACSR-B-18X1' '336-ACSR-B-18X1' '336-ACSR-B-18X1' '1/0-ACSR-B-6X1' ]
New Line.258839978 Phases= 3  Bus1=258839973.1.2.3 Bus2=258839980.1.2.3 Length=32.570000 units=m Spacing=8'-ARM-NON-CENTER-POST-3PH wires=['336-ACSR-B-18X1' '336-ACSR-B-18X1' '336-ACSR-B-18X1' '1/0-ACSR-B-6X1' ]
New Line.258850648 Phases= 3  Bus1=258850645.1.2.3 Bus2=258850650.1.2.3 Length=15.170000 units=m Spacing=HORIZ-LINE-POST-3PH wires=['336-ACSR-B-18X1' '336-ACSR-B-18X1' '336-ACSR-B-18X1' '1/0-ACSR-B-6X1' ]
New Line.258840265 Phases= 3  Bus1=258840262.1.2.3 Bus2=258840267.1.2.3 Length=65.200000 units=m Spacing=8'-ARM-NON-CENTER-POST-3PH wires=['336-ACSR-B-18X1' '336-ACSR-B-18X1' '336-ACSR-B-18X1' '2-CU-B-7' ]
New Line.258840260 Phases= 3  Bus1=258840257.1.2.3 Bus2=258840262.1.2.3 Length=34.790000 units=m Spacing=8'-ARM-NON-CENTER-POST-3PH wires=['336-ACSR-B-18X1' '336-ACSR-B-18X1' '336-ACSR-B-18X1' '2-CU-B-7' ]
New Line.264494225 Phases= 3  Bus1=258840292.1.2.3 Bus2=264494227.1.2.3 Length=1.530000 units=m Spacing=8'-ARM-NON-CENTER-POST-3PH wires=['336-ACSR-B-18X1' '336-ACSR-B-18X1' '336-ACSR-B-18X1' '2-CU-B-7' ]
New Line.263697818 Phases= 3  Bus1=263697815.1.2.3 Bus2=258840178.1.2.3 Length=19.560000 units=m Spacing=8'-ARM-STANDARD-3PH wires=['1/0-ACSR-B-6X1' '1/0-ACSR-B-6X1' '1/0-ACSR-B-6X1' '1/0-ACSR-B-6X1' ]
New Line.258850743 Phases= 3  Bus1=258850740.1.2.3 Bus2=258850745.1.2.3 Length=4.490000 units=m Spacing=8'-ARM-NON-CENTER-POST-3PH wires=['2-ACSR-B-6X1' '2-ACSR-B-6X1' '2-ACSR-B-6X1' '2-ACSR-B-6X1' ]
New Line.264494221 Phases= 3  Bus1=264494218.1.2.3 Bus2=258840388.1.2.3 Length=29.520000 units=m Spacing=8'-ARM-NON-CENTER-POST-3PH wires=['336-ACSR-WP-18X1' '336-ACSR-WP-18X1' '336-ACSR-WP-18X1' '1/0-ACSR-B-6X1' ]
New Line.258840544 Phases= 1  Bus1=258840541.3 Bus2=258840546.3 Length=73.950000 units=m Spacing=VERTICAL-1-PH-60-1PH wires=['2-ACSR-B-6X1' '1/0-ACSR-B-6X1' ]
New Line.258839956 Phases= 3  Bus1=258839953.1.2.3 Bus2=258839958.1.2.3 Length=45.440000 units=m Spacing=8'-ARM-NON-CENTER-POST-3PH wires=['336-ACSR-B-18X1' '336-ACSR-B-18X1' '336-ACSR-B-18X1' '1/0-ACSR-B-6X1' ]
New Line.258850626 Phases= 3  Bus1=258850564.1.2.3 Bus2=258850628.1.2.3 Length=25.320000 units=m Spacing=HORIZ-LINE-POST-3PH wires=['336-ACSR-B-18X1' '336-ACSR-B-18X1' '336-ACSR-B-18X1' '1/0-ACSR-B-6X1' ]
New Line.258850567 Phases= 3  Bus1=258850559.1.2.3 Bus2=258850569.1.2.3 Length=42.590000 units=m Spacing=HORIZ-LINE-POST-3PH wires=['336-ACSR-B-18X1' '336-ACSR-B-18X1' '336-ACSR-B-18X1' '1/0-ACSR-B-6X1' ]
New Line.263973888 Phases= 3  Bus1=258850970.1.2.3 Bus2=263973890.1.2.3 Length=1.520000 units=m Spacing=8'-ARM-NON-CENTER-POST-3PH wires=['336-ACSR-WP-18X1' '336-ACSR-WP-18X1' '336-ACSR-WP-18X1' '1/0-ACSR-B-6X1' ]
New Line.263697813 Phases= 3  Bus1=258840164.1.2.3 Bus2=263697815.1.2.3 Length=1.520000 units=m Spacing=8'-ARM-STANDARD-3PH wires=['1/0-ACSR-B-6X1' '1/0-ACSR-B-6X1' '1/0-ACSR-B-6X1' '1/0-ACSR-B-6X1' ]
New Line.263761822 Phases= 3  Bus1=258850581.1.2.3 Bus2=263761824.1.2.3 Length=1.530000 units=m Spacing=8'-ARM-NON-CENTER-POST-3PH wires=['1/0-ACSR-B-6X1' '1/0-ACSR-B-6X1' '1/0-ACSR-B-6X1' '1/0-ACSR-B-6X1' ]
New Line.258850562 Phases= 3  Bus1=258850559.1.2.3 Bus2=258850564.1.2.3 Length=28.070000 units=m Spacing=HORIZ-LINE-POST-3PH wires=['336-ACSR-B-18X1' '336-ACSR-B-18X1' '336-ACSR-B-18X1' '1/0-ACSR-B-6X1' ]
New Line.258850748 Phases= 3  Bus1=258850740.1.2.3 Bus2=258850750.1.2.3 Length=8.700000 units=m Spacing=8'-ARM-NON-CENTER-POST-3PH wires=['2-ACSR-B-6X1' '2-ACSR-B-6X1' '2-ACSR-B-6X1' '2-ACSR-B-6X1' ]
New Line.258839951 Phases= 3  Bus1=258839948.1.2.3 Bus2=258839953.1.2.3 Length=36.690000 units=m Spacing=8'-ARM-NON-CENTER-POST-3PH wires=['336-ACSR-B-18X1' '336-ACSR-B-18X1' '336-ACSR-B-18X1' '1/0-ACSR-B-6X1' ]
New Line.258840364 Phases= 3  Bus1=258840365.1.2.3 Bus2=258840366.1.2.3 Length=16.750000 units=m Spacing=8'-ARM-STANDARD-3PH wires=['2-ACSR-B-6X1' '2-ACSR-B-6X1' '2-ACSR-B-6X1' '2-ACSR-B-6X1' ]
New Line.258850621 Phases= 3  Bus1=258850576.1.2.3 Bus2=258850623.1.2.3 Length=15.380000 units=m Spacing=8'-ARM-NON-CENTER-POST-3PH wires=['2-ACSR-B-6X1' '2-ACSR-B-6X1' '2-ACSR-B-6X1' '2-ACSR-B-6X1' ]
New Line.258851464 Phases= 3  Bus1=258851452.1.2.3 Bus2=258851466.1.2.3 Length=47.020000 units=m Spacing=8'-ARM-NON-CENTER-POST-3PH wires=['2-ACSR-B-6X1' '2-ACSR-B-6X1' '2-ACSR-B-6X1' '1/0-ACSR-B-6X1' ]
New Line.263761827 Phases= 3  Bus1=263761824.1.2.3 Bus2=258850586.1.2.3 Length=50.240000 units=m Spacing=8'-ARM-NON-CENTER-POST-3PH wires=['1/0-ACSR-B-6X1' '1/0-ACSR-B-6X1' '1/0-ACSR-B-6X1' '1/0-ACSR-B-6X1' ]
New Line.258840423 Phases= 3  Bus1=258840413.1.2.3 Bus2=258840425.1.2.3 Length=61.670000 units=m Spacing=8'-ARM-NON-CENTER-POST-3PH wires=['336-ACSR-WP-18X1' '336-ACSR-WP-18X1' '336-ACSR-WP-18X1' '1/0-ACSR-B-6X1' ]
New Line.258839833 Phases= 3  Bus1=BELLHAVEN_RET_01291204_reg.1.2.3 Bus2=258839835.1.2.3 Length=23.020000 units=m Spacing=8'-ARM-STANDARD-3PH wires=['556-AAC-B-19' '556-AAC-B-19' '556-AAC-B-19' '556-AAC-B-19' ]
New Line.258840245 Phases= 3  Bus1=258840242.1.2.3 Bus2=258840247.1.2.3 Length=87.750000 units=m Spacing=8'-ARM-NON-CENTER-POST-3PH wires=['336-ACSR-B-18X1' '336-ACSR-B-18X1' '336-ACSR-B-18X1' '2-CU-B-7' ]
New Line.258840428 Phases= 3  Bus1=258840425.1.2.3 Bus2=258840430.1.2.3 Length=53.030000 units=m Spacing=8'-ARM-NON-CENTER-POST-3PH wires=['336-ACSR-WP-18X1' '336-ACSR-WP-18X1' '336-ACSR-WP-18X1' '1/0-ACSR-B-6X1' ]
New Line.258840240 Phases= 3  Bus1=258840235.1.2.3 Bus2=258840242.1.2.3 Length=87.180000 units=m Spacing=8'-ARM-NON-CENTER-POST-3PH wires=['336-ACSR-B-18X1' '336-ACSR-B-18X1' '336-ACSR-B-18X1' '2-CU-B-7' ]
New Line.264494202 Phases= 3  Bus1=264494199.1.2.3 Bus2=258840052.1.2.3 Length=36.220000 units=m Spacing=8'-ARM-NON-CENTER-POST-3PH wires=['336-ACSR-B-18X1' '336-ACSR-B-18X1' '336-ACSR-B-18X1' '2-CU-B-7' ]
New Line.258851469 Phases= 3  Bus1=258839963.1.2.3 Bus2=258851471.1.2.3 Length=58.370000 units=m Spacing=8'-ARM-STANDARD-3PH wires=['2-ACSR-B-6X1' '2-ACSR-B-6X1' '2-ACSR-B-6X1' '2-ACSR-B-6X1' ]
New Line.258839838 Phases= 3  Bus1=258839835.1.2.3 Bus2=258839840.1.2.3 Length=90.570000 units=m Spacing=8'-ARM-NON-CENTER-POST-3PH wires=['556-AAC-B-19' '556-AAC-B-19' '556-AAC-B-19' '556-AAC-B-19' ]
New Line.258850723 Phases= 3  Bus1=258850720.1.2.3 Bus2=258850725.1.2.3 Length=38.770000 units=m Spacing=HORIZ-LINE-POST-3PH wires=['336-ACSR-B-18X1' '336-ACSR-B-18X1' '336-ACSR-B-18X1' '1/0-ACSR-B-6X1' ]
New Line.258840524 Phases= 1  Bus1=258840521.3 Bus2=258840526.3 Length=217.800000 units=m Spacing=VERTICAL-1-PH-60-1PH wires=['2-ACSR-B-6X1' '2-ACSR-B-6X1' ]
New Line.258840065 Phases= 3  Bus1=258840062.1.2.3 Bus2=258840067.1.2.3 Length=23.770000 units=m Spacing=8'-ARM-NON-CENTER-POST-3PH wires=['336-ACSR-B-18X1' '336-ACSR-B-18X1' '336-ACSR-B-18X1' '2-CU-B-7' ]
New Line.258850606 Phases= 3  Bus1=258850603.1.2.3 Bus2=258850608.1.2.3 Length=46.970000 units=m Spacing=8'-ARM-NON-CENTER-POST-3PH wires=['1/0-ACSR-B-6X1' '1/0-ACSR-B-6X1' '1/0-ACSR-B-6X1' '1/0-ACSR-B-6X1' ]
New Line.258839934 Phases= 3  Bus1=258839931.1.2.3 Bus2=258839936.1.2.3 Length=66.100000 units=m Spacing=8'-ARM-NON-CENTER-POST-3PH wires=['336-ACSR-WP-18X1' '336-ACSR-WP-18X1' '336-ACSR-WP-18X1' '1/0-ACSR-B-6X1' ]
New Line.258840060 Phases= 3  Bus1=258840057.1.2.3 Bus2=258840062.1.2.3 Length=10.760000 units=m Spacing=8'-ARM-NON-CENTER-POST-3PH wires=['336-ACSR-B-18X1' '336-ACSR-B-18X1' '336-ACSR-B-18X1' '2-CU-B-7' ]
New Line.258850547 Phases= 3  Bus1=258850544.1.2.3 Bus2=258850549.1.2.3 Length=41.540000 units=m Spacing=HORIZ-LINE-POST-3PH wires=['336-ACSR-B-18X1' '336-ACSR-B-18X1' '336-ACSR-B-18X1' '1/0-ACSR-B-6X1' ]
New Line.258840406 Phases= 3  Bus1=258840403.1.2.3 Bus2=258840408.1.2.3 Length=58.540000 units=m Spacing=8'-ARM-NON-CENTER-POST-3PH wires=['336-ACSR-WP-18X1' '336-ACSR-WP-18X1' '336-ACSR-WP-18X1' '1/0-ACSR-B-6X1' ]
New Line.258840487 Phases= 3  Bus1=258840484.1.2.3 Bus2=258840489.1.2.3 Length=119.200000 units=m Spacing=8'-ARM-STANDARD-3PH wires=['2-ACSR-B-6X1' '2-ACSR-B-6X1' '2-ACSR-B-6X1' '1/0-ACSR-B-6X1' ]
New Line.258850542 Phases= 3  Bus1=258850537.1.2.3 Bus2=258850544.1.2.3 Length=6.520000 units=m Spacing=HORIZ-LINE-POST-3PH wires=['336-ACSR-B-18X1' '336-ACSR-B-18X1' '336-ACSR-B-18X1' '1/0-ACSR-B-6X1' ]
New Line.258850683 Phases= 3  Bus1=258850675.1.2.3 Bus2=258850685.1.2.3 Length=23.360000 units=m Spacing=HORIZ-LINE-POST-3PH wires=['336-ACSR-B-18X1' '336-ACSR-B-18X1' '336-ACSR-B-18X1' '1/0-ACSR-B-6X1' ]
New Line.258850728 Phases= 3  Bus1=258850725.1.2.3 Bus2=258850730.1.2.3 Length=58.330000 units=m Spacing=HORIZ-LINE-POST-3PH wires=['336-ACSR-B-18X1' '336-ACSR-B-18X1' '336-ACSR-B-18X1' '1/0-ACSR-B-6X1' ]
New Line.258840344 Phases= 3  Bus1=258840339.1.2.3 Bus2=258840346.1.2.3 Length=67.690000 units=m Spacing=8'-ARM-NON-CENTER-POST-3PH wires=['1/0-ACSR-WP-6X1' '1/0-ACSR-WP-6X1' '1/0-ACSR-WP-6X1' '1/0-ACSR-B-6X1' ]
New Line.258850601 Phases= 3  Bus1=258850596.1.2.3 Bus2=258850603.1.2.3 Length=46.840000 units=m Spacing=8'-ARM-NON-CENTER-POST-3PH wires=['1/0-ACSR-B-6X1' '1/0-ACSR-B-6X1' '1/0-ACSR-B-6X1' '1/0-ACSR-B-6X1' ]
New Line.258840482 Phases= 3  Bus1=258840479.1.2.3 Bus2=258840484.1.2.3 Length=40.780000 units=m Spacing=8'-ARM-STANDARD-3PH wires=['2-ACSR-B-6X1' '2-ACSR-B-6X1' '2-ACSR-B-6X1' '1/0-ACSR-B-6X1' ]
New Line.258851445 Phases= 3  Bus1=258851446.1.2.3 Bus2=258851447.1.2.3 Length=16.850000 units=m Spacing=8'-ARM-STANDARD-3PH wires=['1/0-ACSR-B-6X1' '1/0-ACSR-B-6X1' '1/0-ACSR-B-6X1' '1/0-ACSR-B-6X1' ]
New Line.258839894 Phases= 3  Bus1=258839891.1.2.3 Bus2=258839896.1.2.3 Length=67.370000 units=m Spacing=8'-ARM-NON-CENTER-POST-3PH wires=['336-ACSR-B-18X1' '336-ACSR-B-18X1' '336-ACSR-B-18X1' '1/0-ACSR-B-6X1' ]
New Line.258840401 Phases= 3  Bus1=258840398.1.2.3 Bus2=258840403.1.2.3 Length=157.900000 units=m Spacing=8'-ARM-NON-CENTER-POST-3PH wires=['336-ACSR-WP-18X1' '336-ACSR-WP-18X1' '336-ACSR-WP-18X1' '1/0-ACSR-B-6X1' ]
New Line.258851440 Phases= 1  Bus1=258851437.2 Bus2=258851442.2 Length=25.840000 units=m Spacing=VERTICAL-1-PH-60-1PH wires=['2-ACSR-B-6X1' '2-CU-B-7' ]
New Line.258850688 Phases= 3  Bus1=258850685.1.2.3 Bus2=258850690.1.2.3 Length=18.090000 units=m Spacing=HORIZ-LINE-POST-3PH wires=['336-ACSR-B-18X1' '336-ACSR-B-18X1' '336-ACSR-B-18X1' '1/0-ACSR-B-6X1' ]
New Line.258851266 Phases= 3  Bus1=258851249.1.2.3 Bus2=258851268.1.2.3 Length=24.450000 units=m Spacing=8'-ARM-NON-CENTER-POST-3PH wires=['2-ACSR-B-6X1' '2-ACSR-B-6X1' '2-ACSR-B-6X1' '1/0-ACSR-B-6X1' ]
New Line.258840162 Phases= 3  Bus1=258840159.1.2.3 Bus2=258840164.1.2.3 Length=28.100000 units=m Spacing=8'-ARM-NON-CENTER-POST-3PH wires=['336-ACSR-B-18X1' '336-ACSR-B-18X1' '336-ACSR-B-18X1' '2-CU-B-7' ]
New Line.258840223 Phases= 3  Bus1=258840220.1.2.3 Bus2=258840225.1.2.3 Length=71.370000 units=m Spacing=8'-ARM-NON-CENTER-POST-3PH wires=['336-ACSR-B-18X1' '336-ACSR-B-18X1' '336-ACSR-B-18X1' '2-CU-B-7' ]
New Line.258840349 Phases= 3  Bus1=258840346.1.2.3 Bus2=258840351.1.2.3 Length=56.080000 units=m Spacing=8'-ARM-NON-CENTER-POST-3PH wires=['1/0-ACSR-WP-6X1' '1/0-ACSR-WP-6X1' '1/0-ACSR-WP-6X1' '1/0-ACSR-B-6X1' ]
New Line.258839899 Phases= 3  Bus1=258839896.1.2.3 Bus2=258839901.1.2.3 Length=23.980000 units=m Spacing=8'-ARM-NON-CENTER-POST-3PH wires=['336-ACSR-B-18X1' '336-ACSR-B-18X1' '336-ACSR-B-18X1' '1/0-ACSR-B-6X1' ]
New Line.263714480 Phases= 1  Bus1=263714477.1 Bus2=259223113.1 Length=59.910000 units=m Spacing=VERTICAL-1-PH-104-1PH wires=['2-ACSR-B-6X1' '2-ACSR-B-6X1' ]
New Line.258850703 Phases= 3  Bus1=258850700.1.2.3 Bus2=258850705.1.2.3 Length=5.350000 units=m Spacing=HORIZ-LINE-POST-3PH wires=['336-ACSR-B-18X1' '336-ACSR-B-18X1' '336-ACSR-B-18X1' '1/0-ACSR-B-6X1' ]
New Line.258840504 Phases= 3  Bus1=258840499.1.2.3 Bus2=258840506.1.2.3 Length=27.270000 units=m Spacing=8'-ARM-STANDARD-3PH wires=['2-ACSR-B-6X1' '2-ACSR-B-6X1' '2-ACSR-B-6X1' '1/0-ACSR-B-6X1' ]
New Line.258840045 Phases= 3  Bus1=258840042.1.2.3 Bus2=258840047.1.2.3 Length=34.270000 units=m Spacing=8'-ARM-NON-CENTER-POST-3PH wires=['336-ACSR-B-18X1' '336-ACSR-B-18X1' '336-ACSR-B-18X1' '2-CU-B-7' ]
New Line.258840228 Phases= 3  Bus1=258840225.1.2.3 Bus2=258840230.1.2.3 Length=33.800000 units=m Spacing=8'-ARM-NON-CENTER-POST-3PH wires=['336-ACSR-B-18X1' '336-ACSR-B-18X1' '336-ACSR-B-18X1' '2-CU-B-7' ]
New Line.258839914 Phases= 3  Bus1=258839911.1.2.3 Bus2=258839916.1.2.3 Length=10.190000 units=m Spacing=8'-ARM-NON-CENTER-POST-3PH wires=['336-ACSR-WP-18X1' '336-ACSR-WP-18X1' '336-ACSR-WP-18X1' '1/0-ACSR-B-6X1' ]
New Line.258840040 Phases= 3  Bus1=258840037.1.2.3 Bus2=258840042.1.2.3 Length=17.130000 units=m Spacing=8'-ARM-NON-CENTER-POST-3PH wires=['336-ACSR-B-18X1' '336-ACSR-B-18X1' '336-ACSR-B-18X1' '2-CU-B-7' ]
New Line.258840169 Phases= 3  Bus1=258840164.1.2.3 Bus2=258840171.1.2.3 Length=38.910000 units=m Spacing=8'-ARM-NON-CENTER-POST-3PH wires=['2-ACSR-B-6X1' '2-ACSR-B-6X1' '2-ACSR-B-6X1' '2-ACSR-B-6X1' ]
New Line.258839993 Phases= 3  Bus1=258839990.1.2.3 Bus2=258839995.1.2.3 Length=65.980000 units=m Spacing=8'-ARM-NON-CENTER-POST-3PH wires=['336-ACSR-B-18X1' '336-ACSR-B-18X1' '336-ACSR-B-18X1' '1/0-ACSR-B-6X1' ]
New Line.258840327 Phases= 3  Bus1=258840324.1.2.3 Bus2=258840329.1.2.3 Length=34.040000 units=m Spacing=8'-ARM-NON-CENTER-POST-3PH wires=['1/0-ACSR-WP-6X1' '1/0-ACSR-WP-6X1' '1/0-ACSR-WP-6X1' '1/0-ACSR-B-6X1' ]
New Line.258850708 Phases= 3  Bus1=258850705.1.2.3 Bus2=258850710.1.2.3 Length=87.260000 units=m Spacing=HORIZ-LINE-POST-3PH wires=['336-ACSR-B-18X1' '336-ACSR-B-18X1' '336-ACSR-B-18X1' '1/0-ACSR-B-6X1' ]
New Line.258850521 Phases= 3  Bus1=258850518.1.2.3 Bus2=258850523.1.2.3 Length=21.990000 units=m Spacing=8'-ARM-NON-CENTER-POST-3PH wires=['336-ACSR-WP-18X1' '336-ACSR-WP-18X1' '336-ACSR-WP-18X1' '1/0-ACSR-WP-6X1' ]
New Line.258840322 Phases= 3  Bus1=258840312.1.2.3 Bus2=258840324.1.2.3 Length=21.790000 units=m Spacing=8'-ARM-NON-CENTER-POST-3PH wires=['1/0-ACSR-WP-6X1' '1/0-ACSR-WP-6X1' '1/0-ACSR-WP-6X1' '1/0-ACSR-B-6X1' ]
New Line.258851425 Phases= 1  Bus1=258851417.1 Bus2=258851427.1 Length=93.270000 units=m Spacing=VERTICAL-1-PH-60-1PH wires=['1/0-ACSR-WP-6X1' '2-ACSR-B-6X1' ]
New Line.258840509 Phases= 3  Bus1=258840506.1.2.3 Bus2=258840511.1.2.3 Length=135.700000 units=m Spacing=8'-ARM-STANDARD-3PH wires=['2-ACSR-B-6X1' '2-ACSR-B-6X1' '2-ACSR-B-6X1' '1/0-ACSR-B-6X1' ]
New Line.258851363 Phases= 3  Bus1=258851360.1.2.3 Bus2=258851365.1.2.3 Length=29.260000 units=m Spacing=8'-ARM-STANDARD-3PH wires=['1/0-ACSR-B-6X1' '1/0-ACSR-B-6X1' '1/0-ACSR-B-6X1' '1/0-ACSR-B-6X1' ]
New Line.258851420 Phases= 1  Bus1=258851417.1 Bus2=258851422.1 Length=113.400000 units=m Spacing=VERTICAL-1-PH-60-1PH wires=['1/0-ACSR-B-6X1' '1/0-ACSR-B-6X1' ]
New Line.264567411 Phases= 3  Bus1=264567408.1.2.3 Bus2=258850740.1.2.3 Length=7.870000 units=m Spacing=8'-ARM-NON-CENTER-POST-3PH wires=['2-ACSR-B-6X1' '2-ACSR-B-6X1' '2-ACSR-B-6X1' '2-ACSR-B-6X1' ]
New Line.258839919 Phases= 3  Bus1=258839916.1.2.3 Bus2=258839921.1.2.3 Length=47.430000 units=m Spacing=8'-ARM-NON-CENTER-POST-3PH wires=['336-ACSR-WP-18X1' '336-ACSR-WP-18X1' '336-ACSR-WP-18X1' '1/0-ACSR-B-6X1' ]
New Line.258840147 Phases= 3  Bus1=258840142.1.2.3 Bus2=258840149.1.2.3 Length=34.880000 units=m Spacing=8'-ARM-NON-CENTER-POST-3PH wires=['2-ACSR-B-6X1' '2-ACSR-B-6X1' '2-ACSR-B-6X1' '1/0-ACSR-B-6X1' ]
New Line.258850528 Phases= 3  Bus1=258850518.1.2.3 Bus2=258850530.1.2.3 Length=91.290000 units=m Spacing=DBL-CKT-1-ARM-ONE-SIDE-3PH wires=['336-ACSR-B-18X1' '336-ACSR-B-18X1' '336-AAC-B-19' '1/0-ACSR-B-6X1' ]
New Line.258840285 Phases= 3  Bus1=258840282.1.2.3 Bus2=258840287.1.2.3 Length=37.860000 units=m Spacing=8'-ARM-NON-CENTER-POST-3PH wires=['336-ACSR-B-18X1' '336-ACSR-B-18X1' '336-ACSR-B-18X1' '2-CU-B-7' ]
New Line.258851247 Phases= 3  Bus1=258851217.1.2.3 Bus2=258851249.1.2.3 Length=43.790000 units=m Spacing=8'-ARM-NON-CENTER-POST-3PH wires=['2-ACSR-B-6X1' '2-ACSR-B-6X1' '2-ACSR-B-6X1' '1/0-ACSR-B-6X1' ]
New Line.258840203 Phases= 3  Bus1=258840200.1.2.3 Bus2=258840205.1.2.3 Length=48.640000 units=m Spacing=8'-ARM-NON-CENTER-POST-3PH wires=['336-ACSR-B-18X1' '336-ACSR-B-18X1' '336-ACSR-B-18X1' '2-CU-B-7' ]
New Line.258851242 Phases= 1  Bus1=258851237.3 Bus2=258851244.3 Length=71.060000 units=m Spacing=VERTICAL-1-PH-60-1PH wires=['2-ACSR-B-6X1' '2-ACSR-B-6X1' ]
New Line.264494184 Phases= 3  Bus1=264494181.1.2.3 Bus2=258839911.1.2.3 Length=16.960000 units=m Spacing=8'-ARM-NON-CENTER-POST-3PH wires=['336-ACSR-WP-18X1' '336-ACSR-WP-18X1' '336-ACSR-WP-18X1' '1/0-ACSR-B-6X1' ]
New Line.258840280 Phases= 3  Bus1=258840277.1.2.3 Bus2=258840282.1.2.3 Length=19.060000 units=m Spacing=8'-ARM-NON-CENTER-POST-3PH wires=['336-ACSR-B-18X1' '336-ACSR-B-18X1' '336-ACSR-B-18X1' '2-CU-B-7' ]
New Line.258840025 Phases= 3  Bus1=258840022.1.2.3 Bus2=258840027.1.2.3 Length=8.570000 units=m Spacing=8'-ARM-NON-CENTER-POST-3PH wires=['336-ACSR-B-18X1' '336-ACSR-B-18X1' '336-ACSR-B-18X1' '2-CU-B-7' ]
New Line.258851067 Phases= 1  Bus1=258851064.3 Bus2=258851069.3 Length=64.090000 units=m Spacing=VERTICAL-1-PH-60-1PH wires=['2-ACSR-B-6X1' '2-ACSR-B-6X1' ]
New Line.263515042 Phases= 1  Bus1=263515039.3 Bus2=258851064.3 Length=69.230000 units=m Spacing=VERTICAL-1-PH-60-1PH wires=['2-ACSR-B-6X1' '2-ACSR-B-6X1' ]
New Line.258840208 Phases= 3  Bus1=258840209.1.2.3 Bus2=258840210.1.2.3 Length=20.350000 units=m Spacing=8'-ARM-NON-CENTER-POST-3PH wires=['336-ACSR-B-18X1' '336-ACSR-B-18X1' '336-ACSR-B-18X1' '2-CU-B-7' ]
New Line.258840020 Phases= 3  Bus1=258840017.1.2.3 Bus2=258840022.1.2.3 Length=60.780000 units=m Spacing=8'-ARM-NON-CENTER-POST-3PH wires=['336-ACSR-B-18X1' '336-ACSR-B-18X1' '336-ACSR-B-18X1' '2-CU-B-7' ]
New Line.264494188 Phases= 3  Bus1=258839995.1.2.3 Bus2=264494190.1.2.3 Length=1.520000 units=m Spacing=8'-ARM-NON-CENTER-POST-3PH wires=['336-ACSR-B-18X1' '336-ACSR-B-18X1' '336-ACSR-B-18X1' '2-CU-B-7' ]
New Line.258851346 Phases= 2  Bus1=258851343.1.3 Bus2=258851348.1.3 Length=218.400000 units=m Spacing=8'-ARM-STANDARD-2PH wires=['6-CU-B-S' '6-CU-B-S' '2-CU-B-7' ]
New Line.258840305 Phases= 3  Bus1=258840302.1.2.3 Bus2=258840307.1.2.3 Length=78.500000 units=m Spacing=8'-ARM-NON-CENTER-POST-3PH wires=['336-ACSR-B-18X1' '336-ACSR-B-18X1' '336-ACSR-B-18X1' '2-CU-B-7' ]
New Line.258851405 Phases= 2  Bus1=258851402.1.2 Bus2=258851407.1.2 Length=81.180000 units=m Spacing=8'-ARM-STANDARD-2PH wires=['6-CU-B-S' '6-CU-B-S' '2-CU-B-7' ]
New Line.258840300 Phases= 3  Bus1=258840297.1.2.3 Bus2=258840302.1.2.3 Length=21.370000 units=m Spacing=8'-ARM-NON-CENTER-POST-3PH wires=['336-ACSR-B-18X1' '336-ACSR-B-18X1' '336-ACSR-B-18X1' '2-CU-B-7' ]
New Line.259121513 Phases= 3  Bus1=259121514.1.2.3 Bus2=259121515.1.2.3 Length=44.430000 units=m Spacing=8'-ARM-STANDARD-3PH wires=['2-ACSR-B-6X1' '2-ACSR-B-6X1' '2-ACSR-B-6X1' '2-ACSR-B-6X1' ]
New Line.258851400 Phases= 2  Bus1=258851397.1.2 Bus2=258851402.1.2 Length=95.880000 units=m Spacing=8'-ARM-STANDARD-2PH wires=['6-CU-B-S' '6-CU-B-S' '2-CU-B-7' ]
New Line.258851481 Phases= 3  Bus1=258851476.1.2.3 Bus2=258851483.1.2.3 Length=40.460000 units=m Spacing=8'-ARM-NON-CENTER-POST-3PH wires=['2-ACSR-B-6X1' '2-ACSR-B-6X1' '2-ACSR-B-6X1' '2-ACSR-B-6X1' ]
New Line.258851341 Phases= 2  Bus1=258851338.1.3 Bus2=258851343.1.3 Length=6.560000 units=m Spacing=8'-ARM-STANDARD-2PH wires=['6-CU-B-S' '6-CU-B-S' '2-CU-B-7' ]
New Line.258850589 Phases= 3  Bus1=258850586.1.2.3 Bus2=258850591.1.2.3 Length=30.520000 units=m Spacing=8'-ARM-NON-CENTER-POST-3PH wires=['1/0-ACSR-B-6X1' '1/0-ACSR-B-6X1' '1/0-ACSR-B-6X1' '1/0-ACSR-B-6X1' ]
New Line.258840125 Phases= 2  Bus1=258840122.1.2 Bus2=258840127.1.2 Length=92.030000 units=m Spacing=8'-ARM-STANDARD-2PH wires=['4-CU-B-7' '4-CU-B-7' '1/0-ACSR-B-6X1' ]
New Line.258851225 Phases= 1  Bus1=258851222.3 Bus2=258851227.3 Length=74.550000 units=m Spacing=VERTICAL-1-PH-60-1PH wires=['2-ACSR-B-6X1' '2-ACSR-B-6X1' ]
New Line.258840120 Phases= 2  Bus1=258840079.1.2 Bus2=258840122.1.2 Length=28.910000 units=m Spacing=8'-ARM-STANDARD-2PH wires=['4-CU-B-7' '4-CU-B-7' '1/0-ACSR-B-6X1' ]
New Line.263515141 Phases= 2  Bus1=263515138.1.2 Bus2=258851377.1.2 Length=21.510000 units=m Spacing=8'-ARM-STANDARD-2PH wires=['6-CU-B-S' '6-CU-B-S' '2-CU-B-7' ]
New Line.263515145 Phases= 3  Bus1=258851372.1.2.3 Bus2=263515147.1.2.3 Length=1.530000 units=m Spacing=8'-ARM-STANDARD-3PH wires=['1/0-ACSR-B-6X1' '1/0-ACSR-B-6X1' '1/0-ACSR-B-6X1' '1/0-ACSR-B-6X1' ]
New Line.258840084 Phases= 1  Bus1=258840072.2 Bus2=258840086.2 Length=25.220000 units=m Spacing=VERTICAL-1-PH-60-1PH wires=['2-ACSR-B-6X1' '1/0-ACSR-B-6X1' ]
New Line.258851047 Phases= 1  Bus1=460932520.1 Bus2=258851049.1 Length=48.160000 units=m Spacing=VERTICAL-1-PH-60-1PH wires=['2-ACSR-B-6X1' '2-ACSR-B-6X1' ]
New Line.258851168 Phases= 3  Bus1=258851160.1.2.3 Bus2=258851170.1.2.3 Length=45.140000 units=m Spacing=8'-ARM-NON-CENTER-POST-3PH wires=['2-ACSR-B-6X1' '2-ACSR-B-6X1' '2-ACSR-B-6X1' '1/0-ACSR-B-6X1' ]
New Line.259200539 Phases= 3  Bus1=258840032.1.2.3 Bus2=258840036.1.2.3 Length=80.940000 units=m Spacing=8'-ARM-NON-CENTER-POST-3PH wires=['336-ACSR-B-18X1' '336-ACSR-B-18X1' '336-ACSR-B-18X1' '2-CU-B-7' ]
New Line.259371831 Phases= 3  Bus1=258840205.1.2.3 Bus2=258840209.1.2.3 Length=30.380000 units=m Spacing=8'-ARM-NON-CENTER-POST-3PH wires=['336-ACSR-B-18X1' '336-ACSR-B-18X1' '336-ACSR-B-18X1' '2-CU-B-7' ]
New Line.258851326 Phases= 2  Bus1=258851323.1.3 Bus2=258851328.1.3 Length=56.060000 units=m Spacing=8'-ARM-STANDARD-2PH wires=['6-CU-B-S' '6-CU-B-S' '2-CU-B-7' ]
New Line.259545336 Phases= 3  Bus1=259545333.1.2.3 Bus2=259545338.1.2.3 Length=53.720000 units=m Spacing=8'-ARM-STANDARD-3PH wires=['2-ACSR-B-6X1' '2-ACSR-B-6X1' '2-ACSR-B-6X1' '2-ACSR-B-6X1' ]
New Line.259223116 Phases= 3  Bus1=258840215.1.2.3 Bus2=258840219.1.2.3 Length=23.190000 units=m Spacing=8'-ARM-NON-CENTER-POST-3PH wires=['336-ACSR-B-18X1' '336-ACSR-B-18X1' '336-ACSR-B-18X1' '1/0-ACSR-B-6X1' ]
New Line.259357192 Phases= 3  Bus1=259357184.1.2.3 Bus2=259357188.1.2.3 Length=8.440000 units=m Spacing=8'-ARM-NON-CENTER-POST-3PH wires=['1/0-ACSR-WP-6X1' '1/0-ACSR-WP-6X1' '1/0-ACSR-WP-6X1' '2-ACSR-B-6X1' ]
New Line.258840105 Phases= 1  Bus1=258840100.2 Bus2=258840107.2 Length=61.030000 units=m Spacing=VERTICAL-1-PH-60-1PH wires=['2-ACSR-B-6X1' '2-ACSR-B-6X1' ]
New Line.258851286 Phases= 1  Bus1=258851283.1 Bus2=258851288.1 Length=48.020000 units=m Spacing=VERTICAL-1-PH-60-1PH wires=['2-ACSR-B-6X1' '2-ACSR-B-6X1' ]
New Line.258840183 Phases= 3  Bus1=258840164.1.2.3 Bus2=258840185.1.2.3 Length=95.720000 units=m Spacing=8'-ARM-NON-CENTER-POST-3PH wires=['336-ACSR-B-18X1' '336-ACSR-B-18X1' '336-ACSR-B-18X1' '2-CU-B-7' ]
New Line.258851205 Phases= 3  Bus1=258851202.1.2.3 Bus2=258851207.1.2.3 Length=19.560000 units=m Spacing=8'-ARM-NON-CENTER-POST-3PH wires=['2-ACSR-B-6X1' '2-ACSR-B-6X1' '2-ACSR-B-6X1' '1/0-ACSR-B-6X1' ]
New Line.258851143 Phases= 3  Bus1=258851138.1.2.3 Bus2=258851145.1.2.3 Length=44.010000 units=m Spacing=8'-ARM-NON-CENTER-POST-3PH wires=['2-ACSR-B-6X1' '2-ACSR-B-6X1' '2-ACSR-B-6X1' '1/0-ACSR-B-6X1' ]
New Line.258851200 Phases= 3  Bus1=258851197.1.2.3 Bus2=258851202.1.2.3 Length=3.100000 units=m Spacing=8'-ARM-NON-CENTER-POST-3PH wires=['2-ACSR-B-6X1' '2-ACSR-B-6X1' '2-ACSR-B-6X1' '1/0-ACSR-B-6X1' ]
New Line.258851281 Phases= 3  Bus1=258851278.1.2.3 Bus2=258851283.1.2.3 Length=40.250000 units=m Spacing=8'-ARM-NON-CENTER-POST-3PH wires=['2-ACSR-B-6X1' '2-ACSR-B-6X1' '2-ACSR-B-6X1' '2-ACSR-B-6X1' ]
New Line.263515127 Phases= 2  Bus1=258840190.1.3 Bus2=263515129.1.3 Length=1.530000 units=m Spacing=8'-ARM-STANDARD-2PH wires=['6-CU-B-S' '6-CU-B-S' '6-CU-B-S' ]
New Line.263515082 Phases= 1  Bus1=258851155.3 Bus2=263515084.3 Length=1.520000 units=m Spacing=VERTICAL-1-PH-60-1PH wires=['2-ACSR-B-6X1' '2-ACSR-B-6X1' ]
New Line.258840188 Phases= 2  Bus1=258840185.1.3 Bus2=258840190.1.3 Length=77.000000 units=m Spacing=8'-ARM-STANDARD-2PH wires=['6-CU-B-S' '6-CU-B-S' '2-CU-B-7' ]
New Line.258851022 Phases= 1  Bus1=258851019.2 Bus2=258851024.2 Length=59.130000 units=m Spacing=VERTICAL-1-PH-60-1PH wires=['2-ACSR-B-6X1' '2-ACSR-B-6X1' ]
New Line.258851148 Phases= 3  Bus1=258851145.1.2.3 Bus2=258851150.1.2.3 Length=50.290000 units=m Spacing=8'-ARM-NON-CENTER-POST-3PH wires=['2-ACSR-B-6X1' '2-ACSR-B-6X1' '2-ACSR-B-6X1' '1/0-ACSR-B-6X1' ]
New Line.263515001 Phases= 3  Bus1=258850970.1.2.3 Bus2=263515003.1.2.3 Length=1.520000 units=m Spacing=8'-ARM-NON-CENTER-POST-3PH wires=['2-ACSR-B-6X1' '2-ACSR-B-6X1' '2-ACSR-B-6X1' '2-ACSR-B-6X1' ]
New Line.263515006 Phases= 3  Bus1=263515003.1.2.3 Bus2=258850982.1.2.3 Length=69.080000 units=m Spacing=8'-ARM-NON-CENTER-POST-3PH wires=['2-ACSR-B-6X1' '2-ACSR-B-6X1' '2-ACSR-B-6X1' '2-ACSR-B-6X1' ]
New Line.263515087 Phases= 1  Bus1=263515084.3 Bus2=258851165.3 Length=74.550000 units=m Spacing=VERTICAL-1-PH-60-1PH wires=['2-ACSR-B-6X1' '2-ACSR-B-6X1' ]
New Line.258851385 Phases= 2  Bus1=258851382.1.2 Bus2=258851387.1.2 Length=50.870000 units=m Spacing=8'-ARM-STANDARD-2PH wires=['6-CU-B-S' '6-CU-B-S' '2-CU-B-7' ]
New Line.258851301 Phases= 3  Bus1=258851298.1.2.3 Bus2=258851303.1.2.3 Length=13.530000 units=m Spacing=8'-ARM-NON-CENTER-POST-3PH wires=['2-ACSR-B-6X1' '2-ACSR-B-6X1' '2-ACSR-B-6X1' '2-ACSR-B-6X1' ]
New Line.258851380 Phases= 2  Bus1=258851377.1.2 Bus2=258851382.1.2 Length=55.000000 units=m Spacing=8'-ARM-STANDARD-2PH wires=['6-CU-B-S' '6-CU-B-S' '2-CU-B-7' ]
New Line.258851126 Phases= 3  Bus1=258851123.1.2.3 Bus2=258851128.1.2.3 Length=64.170000 units=m Spacing=8'-ARM-NON-CENTER-POST-3PH wires=['2-ACSR-B-6X1' '2-ACSR-B-6X1' '2-ACSR-B-6X1' '2-ACSR-B-6X1' ]
New Line.263515100 Phases= 1  Bus1=258851212.3 Bus2=263515102.3 Length=1.530000 units=m Spacing=VERTICAL-1-PH-60-1PH wires=['2-ACSR-B-6X1' '2-ACSR-B-6X1' ]
New Line.258851121 Phases= 3  Bus1=258851113.1.2.3 Bus2=258851123.1.2.3 Length=90.980000 units=m Spacing=8'-ARM-NON-CENTER-POST-3PH wires=['2-ACSR-B-6X1' '2-ACSR-B-6X1' '2-ACSR-B-6X1' '1/0-ACSR-B-6X1' ]
New Line.263515105 Phases= 1  Bus1=263515102.3 Bus2=258851222.3 Length=7.530000 units=m Spacing=VERTICAL-1-PH-60-1PH wires=['2-ACSR-B-6X1' '2-ACSR-B-6X1' ]
New Line.258851007 Phases= 3  Bus1=258850999.1.2.3 Bus2=258851009.1.2.3 Length=44.890000 units=m Spacing=8'-ARM-NON-CENTER-POST-3PH wires=['2-ACSR-B-6X1' '2-ACSR-B-6X1' '2-ACSR-B-6X1' '2-ACSR-B-6X1' ]
New Line.258851002 Phases= 3  Bus1=258850999.1.2.3 Bus2=258851004.1.2.3 Length=29.300000 units=m Spacing=8'-ARM-NON-CENTER-POST-3PH wires=['2-ACSR-B-6X1' '2-ACSR-B-6X1' '2-ACSR-B-6X1' '2-ACSR-B-6X1' ]
New Line.258851082 Phases= 3  Bus1=258851079.1.2.3 Bus2=258851084.1.2.3 Length=62.260000 units=m Spacing=8'-ARM-NON-CENTER-POST-3PH wires=['2-ACSR-B-6X1' '2-ACSR-B-6X1' '2-ACSR-B-6X1' '1/0-ACSR-B-6X1' ]
New Line.259237098 Phases= 3  Bus1=259004984.1.2.3 Bus2=259004980.1.2.3 Length=92.150000 units=m Spacing=HORIZ-LINE-POST-3PH wires=['336-ACSR-WP-18X1' '336-ACSR-WP-18X1' '336-ACSR-WP-18X1' '1/0-ACSR-B-6X1' ]
New Line.258851089 Phases= 3  Bus1=258851084.1.2.3 Bus2=258851091.1.2.3 Length=45.000000 units=m Spacing=8'-ARM-NON-CENTER-POST-3PH wires=['2-ACSR-B-6X1' '2-ACSR-B-6X1' '2-ACSR-B-6X1' '1/0-ACSR-B-6X1' ]
New Line.263514862 Phases= 3  Bus1=263514859.1.2.3 Bus2=258850953.1.2.3 Length=39.770000 units=m Spacing=8'-ARM-NON-CENTER-POST-3PH wires=['2-ACSR-B-6X1' '2-ACSR-B-6X1' '2-ACSR-B-6X1' '2-ACSR-B-6X1' ]
New Line.258851106 Phases= 3  Bus1=258851103.1.2.3 Bus2=258851108.1.2.3 Length=20.750000 units=m Spacing=8'-ARM-NON-CENTER-POST-3PH wires=['2-ACSR-B-6X1' '2-ACSR-B-6X1' '2-ACSR-B-6X1' '1/0-ACSR-B-6X1' ]
New Line.263514866 Phases= 3  Bus1=258850650.1.2.3 Bus2=263514868.1.2.3 Length=1.530000 units=m Spacing=8'-ARM-NON-CENTER-POST-3PH wires=['2-ACSR-B-6X1' '2-ACSR-B-6X1' '2-ACSR-B-6X1' '2-ACSR-B-6X1' ]
New Line.258851183 Phases= 3  Bus1=258851180.1.2.3 Bus2=258851185.1.2.3 Length=22.160000 units=m Spacing=8'-ARM-NON-CENTER-POST-3PH wires=['2-ACSR-B-6X1' '2-ACSR-B-6X1' '2-ACSR-B-6X1' '1/0-ACSR-B-6X1' ]
New Line.258851101 Phases= 3  Bus1=258851096.1.2.3 Bus2=258851103.1.2.3 Length=74.450000 units=m Spacing=8'-ARM-NON-CENTER-POST-3PH wires=['2-ACSR-B-6X1' '2-ACSR-B-6X1' '2-ACSR-B-6X1' '1/0-ACSR-B-6X1' ]
New Line.258851188 Phases= 3  Bus1=258851180.1.2.3 Bus2=258851190.1.2.3 Length=51.350000 units=m Spacing=8'-ARM-NON-CENTER-POST-3PH wires=['2-ACSR-B-6X1' '2-ACSR-B-6X1' '2-ACSR-B-6X1' '2-ACSR-B-6X1' ]
New Line.263514848 Phases= 3  Bus1=258850633.1.2.3 Bus2=263514850.1.2.3 Length=1.530000 units=m Spacing=8'-ARM-NON-CENTER-POST-3PH wires=['2-ACSR-B-6X1' '2-ACSR-B-6X1' '2-ACSR-B-6X1' '2-ACSR-B-6X1' ]
New Line.258850963 Phases= 3  Bus1=258850960.1.2.3 Bus2=258850965.1.2.3 Length=24.360000 units=m Spacing=8'-ARM-NON-CENTER-POST-3PH wires=['2-ACSR-B-6X1' '2-ACSR-B-6X1' '2-ACSR-B-6X1' '2-ACSR-B-6X1' ]
New Line.288683098 Phases= 3  Bus1=288683093.1.2.3 Bus2=259357184.1.2.3 Length=4.060000 units=m Spacing=8'-ARM-NON-CENTER-POST-3PH wires=['1/0-ACSR-WP-6X1' '1/0-ACSR-WP-6X1' '1/0-ACSR-WP-6X1' '2-ACSR-B-6X1' ]
New Line.288683096 Phases= 3  Bus1=258840356.1.2.3 Bus2=288683092.1.2.3 Length=52.590000 units=m Spacing=8'-ARM-NON-CENTER-POST-3PH wires=['1/0-ACSR-WP-6X1' '1/0-ACSR-WP-6X1' '1/0-ACSR-WP-6X1' '2-ACSR-B-6X1' ]
New Line.259005070 Phases= 3  Bus1=259005065.1.2.3 Bus2=259005072.1.2.3 Length=70.090000 units=m Spacing=8'-ARM-STANDARD-3PH wires=['1/0-ACSR-B-6X1' '1/0-ACSR-B-6X1' '1/0-ACSR-B-6X1' '1/0-ACSR-B-6X1' ]
New Line.258850968 Phases= 3  Bus1=258850523.1.2.3 Bus2=258850970.1.2.3 Length=49.660000 units=m Spacing=8'-ARM-NON-CENTER-POST-3PH wires=['336-ACSR-WP-18X1' '336-ACSR-WP-18X1' '336-ACSR-WP-18X1' '1/0-ACSR-WP-6X1' ]
...
