03_OpenDSS_Circuits/Bellhaven_Circuit_Opendss/BELLHAVEN_RET_01291204_VLN_Node.Txt

LINE-GROUND and LINE-LINE VOLTAGES BY BUS & NODE

Bus                        Node    VLN (kV)   Angle      pu     Base kV    Node-Node   VLL (kV)  Angle      pu

BELLHAVEN_RET_01291204 ... 1       7.1835 /_   -0.5   0.99777    12.470        1-2      12.44 /_   29.6   0.99761
   -                       2       7.1841 /_ -120.4   0.99785    12.470        2-3     12.447 /_  -90.5   0.99814
   -                       3       7.1835 /_  119.5   0.99777    12.470        3-1     12.441 /_  149.5   0.99764
BELLHAVEN_RET_01291204_REG 1        7.901 /_   -0.5    1.0974    12.470        1-2     13.683 /_   29.5    1.0972
   -                       2       7.9017 /_ -120.5    1.0975    12.470        2-3      13.69 /_  -90.5    1.0979
   -                       3        7.901 /_  119.5    1.0974    12.470        3-1     13.683 /_  149.5    1.0973
263514994 ................ 1       7.8528 /_   -1.1    1.0907    12.470        1-2     13.581 /_   29.1    1.0891
   -                       2       7.8475 /_ -120.8      1.09    12.470        2-3     13.619 /_  -91.0    1.0921
   -                       3       7.8533 /_  118.9    1.0908    12.470        3-1     13.597 /_  148.9    1.0903
260745387 ................ 1       7.8528 /_   -1.1    1.0907    12.470        1-2     13.581 /_   29.1    1.0891
   -                       2       7.8475 /_ -120.8      1.09    12.470        2-3     13.619 /_  -91.0    1.0921
   -                       3       7.8533 /_  118.9    1.0908    12.470        3-1     13.597 /_  148.9    1.0903
260972100 ................ 2       7.8714 /_ -120.7    1.0933    12.470
260972095 ................ 2       7.8714 /_ -120.7    1.0933    12.470
261002726 ................ 2       7.8502 /_ -120.8    1.0904    12.470
261002710 ................ 2       7.8502 /_ -120.8    1.0904    12.470
260784285 ................ 3       7.8565 /_  118.9    1.0912    12.470
260784290 ................ 3       7.8565 /_  118.9    1.0912    12.470
260784280 ................ 3       7.8565 /_  118.9    1.0912    12.470
260972111 ................ 3       7.8748 /_  119.1    1.0938    12.470
260972116 ................ 3       7.8748 /_  119.1    1.0938    12.470
261002705 ................ 2       7.8502 /_ -120.8    1.0904    12.470
261002706 ................ 2       7.8502 /_ -120.8    1.0904    12.470
260972080 ................ 3       7.8748 /_  119.1    1.0938    12.470
261031159 ................ 1       7.8737 /_   -0.8    1.0936    12.470
260972090 ................ 1       7.8737 /_   -0.8    1.0936    12.470
260784305 ................ 3       7.8564 /_  118.9    1.0912    12.470
260784310 ................ 3       7.8565 /_  118.9    1.0912    12.470
460932367 ................ 1       7.8499 /_   -1.0    1.0903    12.470        1-2     13.577 /_   29.1    1.0888
   -                       2       7.8462 /_ -120.8    1.0898    12.470        2-3     13.615 /_  -90.9    1.0919
   -                       3       7.8513 /_  118.9    1.0905    12.470        3-1     13.593 /_  148.9    1.0901
261124323 ................ 1       7.8495 /_   -1.0    1.0903    12.470        1-2     13.576 /_   29.1    1.0887
   -                       2       7.8459 /_ -120.8    1.0898    12.470        2-3     13.615 /_  -90.9    1.0918
   -                       3       7.8509 /_  118.9    1.0905    12.470        3-1     13.592 /_  148.9      1.09
261085132 ................ 1       7.8556 /_   -1.0    1.0911    12.470
261085133 ................ 1       7.8556 /_   -1.0    1.0911    12.470
259357188 ................ 1       7.8499 /_   -1.0    1.0903    12.470        1-2     13.577 /_   29.1    1.0888
   -                       2       7.8462 /_ -120.8    1.0898    12.470        2-3     13.615 /_  -90.9    1.0919
   -                       3       7.8513 /_  118.9    1.0905    12.470        3-1     13.593 /_  148.9    1.0901
460932379 ................ 1       7.8499 /_   -1.0    1.0903    12.470        1-2     13.577 /_   29.1    1.0888
   -                       2       7.8462 /_ -120.8    1.0898    12.470        2-3     13.615 /_  -90.9    1.0919
   -                       3       7.8513 /_  118.9    1.0905    12.470        3-1     13.593 /_  148.9    1.0901
260784300 ................ 3       7.8565 /_  118.9    1.0912    12.470
259237105 ................ 1       7.8556 /_   -1.0    1.0911    12.470        1-2     13.586 /_   29.1    1.0895
   -                       2       7.8502 /_ -120.8    1.0904    12.470
263730570 ................ 1       7.8556 /_   -1.0    1.0911    12.470
263730561 ................ 1       7.8556 /_   -1.0    1.0911    12.470
261002746 ................ 1       7.8556 /_   -1.0    1.0911    12.470
469800067 ................ 1       7.8493 /_   -1.0    1.0902    12.470        1-2     13.576 /_   29.1    1.0887
   -                       2       7.8457 /_ -120.8    1.0898    12.470        2-3     13.615 /_  -90.9    1.0918
   -                       3       7.8507 /_  118.9    1.0904    12.470        3-1     13.592 /_  148.9      1.09
472683966 ................ 1       7.8493 /_   -1.0    1.0902    12.470        1-2     13.576 /_   29.1    1.0887
   -                       2       7.8457 /_ -120.8    1.0898    12.470        2-3     13.615 /_  -90.9    1.0918
   -                       3       7.8507 /_  118.9    1.0904    12.470        3-1     13.592 /_  148.9      1.09
259357189 ................ 1       7.8497 /_   -1.0    1.0903    12.470        1-2     13.577 /_   29.1    1.0887
   -                       2       7.8461 /_ -120.8    1.0898    12.470        2-3     13.615 /_  -90.9    1.0918
   -                       3       7.8512 /_  118.9    1.0905    12.470        3-1     13.593 /_  148.9      1.09
460932413 ................ 1       7.8497 /_   -1.0    1.0903    12.470        1-2     13.577 /_   29.1    1.0887
   -                       2       7.8461 /_ -120.8    1.0898    12.470        2-3     13.615 /_  -90.9    1.0918
   -                       3       7.8512 /_  118.9    1.0905    12.470        3-1     13.593 /_  148.9      1.09
260745462 ................ 2        7.858 /_ -120.7    1.0915    12.470
264254805 ................ 2        7.858 /_ -120.7    1.0915    12.470
261085128 ................ 1       7.8556 /_   -1.0    1.0911    12.470
261107771 ................ 1       7.8556 /_   -1.0    1.0911    12.470
260745472 ................ 3       7.8626 /_  119.0    1.0921    12.470
260745427 ................ 3       7.8626 /_  119.0    1.0921    12.470
259371848 ................ 1       7.8698 /_   -0.9    1.0931    12.470
263862867 ................ 1       7.8698 /_   -0.9    1.0931    12.470
460932401 ................ 1       7.8497 /_   -1.0    1.0903    12.470        1-2     13.577 /_   29.1    1.0887
   -                       2       7.8461 /_ -120.8    1.0898    12.470        2-3     13.615 /_  -90.9    1.0918
   -                       3       7.8512 /_  118.9    1.0905    12.470        3-1     13.593 /_  148.9      1.09
259004985 ................ 1       7.8556 /_   -1.0    1.0911    12.470        1-2     13.586 /_   29.1    1.0895
   -                       2       7.8502 /_ -120.8    1.0904    12.470        2-3     13.623 /_  -90.9    1.0925
   -                       3       7.8565 /_  118.9    1.0912    12.470        3-1     13.602 /_  148.9    1.0908
263565068 ................ 3       7.8565 /_  118.9    1.0912    12.470
264311802 ................ 1       7.8493 /_   -1.0    1.0902    12.470        1-2     13.576 /_   29.1    1.0887
   -                       2       7.8458 /_ -120.8    1.0898    12.470        2-3     13.615 /_  -90.9    1.0918
   -                       3       7.8507 /_  118.9    1.0904    12.470        3-1     13.592 /_  148.9      1.09
260745432 ................ 2       7.8579 /_ -120.7    1.0914    12.470
260745437 ................ 2       7.8579 /_ -120.7    1.0914    12.470
263730579 ................ 2       7.8502 /_ -120.8    1.0904    12.470
261002716 ................ 2       7.8502 /_ -120.8    1.0904    12.470
259237110 ................ 1       7.8556 /_   -1.0    1.0911    12.470        1-2     13.586 /_   29.1    1.0895
   -                       2       7.8503 /_ -120.8    1.0904    12.470
263730588 ................ 2       7.8503 /_ -120.8    1.0904    12.470
263701639 ................ 2       7.8714 /_ -120.7    1.0933    12.470
264292382 ................ 1       7.8737 /_   -0.8    1.0936    12.470
258851446 ................ 1       7.8737 /_   -0.8    1.0936    12.470        1-2     13.625 /_   29.3    1.0926
   -                       2       7.8714 /_ -120.7    1.0933    12.470        2-3     13.651 /_  -90.8    1.0947
   -                       3       7.8748 /_  119.1    1.0938    12.470        3-1     13.635 /_  149.2    1.0934
263701630 ................ 1       7.8737 /_   -0.8    1.0936    12.470
263701621 ................ 3       7.8748 /_  119.1    1.0938    12.470
258840200 ................ 1       7.8711 /_   -0.8    1.0933    12.470        1-2      13.62 /_   29.2    1.0922
   -                       2       7.8686 /_ -120.7    1.0929    12.470        2-3     13.647 /_  -90.8    1.0944
   -                       3       7.8721 /_  119.1    1.0934    12.470        3-1      13.63 /_  149.1     1.093
263511709 ................ 1       7.8711 /_   -0.8    1.0933    12.470        1-2      13.62 /_   29.2    1.0922
   -                       2       7.8686 /_ -120.7    1.0929    12.470        2-3     13.647 /_  -90.8    1.0944
   -                       3       7.8721 /_  119.1    1.0934    12.470        3-1      13.63 /_  149.1     1.093
258851447 ................ 1       7.8737 /_   -0.8    1.0936    12.470        1-2     13.625 /_   29.3    1.0926
   -                       2       7.8714 /_ -120.7    1.0933    12.470        2-3     13.651 /_  -90.8    1.0947
   -                       3       7.8748 /_  119.1    1.0938    12.470        3-1     13.635 /_  149.2    1.0934
263701603 ................ 2       7.8714 /_ -120.7    1.0933    12.470
261031178 ................ 2        7.871 /_ -120.7    1.0933    12.470
263565077 ................ 3       7.8565 /_  118.9    1.0912    12.470
260784245 ................ 3       7.8565 /_  118.9    1.0912    12.470
260745311 ................ 1       7.8549 /_   -1.0     1.091    12.470        1-2     13.585 /_   29.1    1.0894
   -                       2       7.8496 /_ -120.8    1.0903    12.470        2-3     13.622 /_  -90.9    1.0924
   -                       3       7.8554 /_  118.9    1.0911    12.470        3-1       13.6 /_  148.9    1.0906
260745312 ................ 1       7.8549 /_   -1.0     1.091    12.470        1-2     13.585 /_   29.1    1.0894
   -                       2       7.8496 /_ -120.8    1.0903    12.470        2-3     13.622 /_  -90.9    1.0924
   -                       3       7.8554 /_  118.9    1.0911    12.470        3-1       13.6 /_  148.9    1.0906
259005092 ................ 1       7.8556 /_   -1.0    1.0911    12.470        1-2     13.586 /_   29.1    1.0895
   -                       2       7.8502 /_ -120.8    1.0904    12.470        2-3     13.623 /_  -90.9    1.0925
   -                       3       7.8565 /_  118.9    1.0912    12.470        3-1     13.602 /_  148.9    1.0908
263565086 ................ 1       7.8556 /_   -1.0    1.0911    12.470        1-2     13.586 /_   29.1    1.0895
   -                       2       7.8502 /_ -120.8    1.0904    12.470        2-3     13.623 /_  -90.9    1.0925
   -                       3       7.8565 /_  118.9    1.0912    12.470        3-1     13.602 /_  148.9    1.0908
260784225 ................ 1       7.8556 /_   -1.0    1.0911    12.470        1-2     13.586 /_   29.1    1.0895
   -                       2       7.8502 /_ -120.8    1.0904    12.470        2-3     13.623 /_  -90.9    1.0925
   -                       3       7.8565 /_  118.9    1.0912    12.470        3-1     13.602 /_  148.9    1.0908
466987507 ................ 1       7.8579 /_   -1.0    1.0914    12.470        1-2     13.591 /_   29.1    1.0899
   -                       2       7.8531 /_ -120.8    1.0908    12.470        2-3     13.627 /_  -90.9    1.0928
   -                       3       7.8586 /_  118.9    1.0915    12.470        3-1     13.606 /_  149.0    1.0911
466987565 ................ 1       7.8579 /_   -1.0    1.0914    12.470        1-2     13.591 /_   29.1    1.0899
   -                       2       7.8531 /_ -120.8    1.0908    12.470        2-3     13.627 /_  -90.9    1.0928
   -                       3       7.8586 /_  118.9    1.0915    12.470        3-1     13.606 /_  149.0    1.0911
263515057 ................ 2        7.858 /_ -120.7    1.0915    12.470
260745457 ................ 2        7.858 /_ -120.7    1.0915    12.470
260745407 ................ 1       7.8579 /_   -1.0    1.0914    12.470        1-2     13.591 /_   29.1    1.0899
   -                       2       7.8531 /_ -120.8    1.0908    12.470        2-3     13.627 /_  -90.9    1.0928
   -                       3       7.8586 /_  118.9    1.0915    12.470        3-1     13.606 /_  149.0    1.0911
258851096 ................ 1       7.8618 /_   -0.9     1.092    12.470        1-2       13.6 /_   29.1    1.0906
   -                       2        7.858 /_ -120.7    1.0915    12.470        2-3     13.633 /_  -90.9    1.0933
   -                       3       7.8624 /_  119.0    1.0921    12.470        3-1     13.613 /_  149.0    1.0917
263515066 ................ 3       7.8624 /_  119.0    1.0921    12.470
260745417 ................ 3       7.8624 /_  119.0    1.0921    12.470
258851471 ................ 1       7.8845 /_   -0.7    1.0951    12.470        1-2     13.648 /_   29.4    1.0945
   -                       2       7.8837 /_ -120.6     1.095    12.470        2-3     13.667 /_  -90.7     1.096
   -                       3       7.8852 /_  119.3    1.0952    12.470        3-1     13.654 /_  149.3     1.095
263515165 ................ 1       7.8845 /_   -0.7    1.0951    12.470        1-2     13.648 /_   29.4    1.0945
   -                       2       7.8837 /_ -120.6     1.095    12.470        2-3     13.667 /_  -90.7     1.096
   -                       3       7.8852 /_  119.3    1.0952    12.470        3-1     13.654 /_  149.3     1.095
260745494 ................ 1       7.8845 /_   -0.7    1.0951    12.470        1-2     13.648 /_   29.4    1.0945
   -                       2       7.8837 /_ -120.6     1.095    12.470        2-3     13.667 /_  -90.7     1.096
   -                       3       7.8852 /_  119.3    1.0952    12.470        3-1     13.654 /_  149.3     1.095
258851091 ................ 1       7.8619 /_   -0.9     1.092    12.470        1-2       13.6 /_   29.1    1.0906
   -                       2       7.8581 /_ -120.7    1.0915    12.470        2-3     13.633 /_  -90.9    1.0933
   -                       3       7.8626 /_  119.0    1.0921    12.470        3-1     13.613 /_  149.0    1.0917
263515048 ................ 3       7.8626 /_  119.0    1.0921    12.470
263815483 ................ 1       7.8556 /_   -1.0    1.0911    12.470
259312123 ................ 1       7.8556 /_   -1.0    1.0911    12.470
258851049 ................ 1       7.8583 /_   -1.0    1.0915    12.470
263515030 ................ 1       7.8583 /_   -1.0    1.0915    12.470
260745346 ................ 1       7.8524 /_   -1.1    1.0907    12.470        1-2      13.58 /_   29.0     1.089
   -                       2       7.8472 /_ -120.8      1.09    12.470        2-3     13.618 /_  -91.0    1.0921
   -                       3       7.8529 /_  118.9    1.0907    12.470        3-1     13.596 /_  148.9    1.0903
260987679 ................ 1       7.8524 /_   -1.1    1.0907    12.470        1-2      13.58 /_   29.0     1.089
   -                       2       7.8472 /_ -120.8      1.09    12.470        2-3     13.618 /_  -91.0    1.0921
   -                       3       7.8529 /_  118.9    1.0907    12.470        3-1     13.596 /_  148.9    1.0903
263515120 ................ 1       7.8617 /_   -1.0     1.092    12.470
260745447 ................ 1       7.8617 /_   -1.0     1.092    12.470
261311161 ................ 1       7.8525 /_   -1.1    1.0907    12.470        1-2      13.58 /_   29.0     1.089
   -                       2       7.8473 /_ -120.8      1.09    12.470        2-3     13.618 /_  -91.0    1.0921
   -                       3        7.853 /_  118.9    1.0908    12.470        3-1     13.596 /_  148.9    1.0903
264341151 ................ 1       7.8525 /_   -1.1    1.0907    12.470        1-2      13.58 /_   29.0     1.089
   -                       2       7.8473 /_ -120.8      1.09    12.470        2-3     13.618 /_  -91.0    1.0921
   -                       3        7.853 /_  118.9    1.0908    12.470        3-1     13.596 /_  148.9    1.0903
258851175 ................ 1       7.8611 /_   -1.0    1.0919    12.470
263515111 ................ 1       7.8611 /_   -1.0    1.0919    12.470
472684459 ................ 1       7.8566 /_   -1.0    1.0913    12.470        1-2     13.588 /_   29.1    1.0896
   -                       2       7.8513 /_ -120.8    1.0905    12.470        2-3     13.625 /_  -90.9    1.0926
   -                       3       7.8568 /_  118.9    1.0913    12.470        3-1     13.603 /_  148.9    1.0909
472684499 ................ 1       7.8566 /_   -1.0    1.0913    12.470        1-2     13.588 /_   29.1    1.0896
   -                       2       7.8513 /_ -120.8    1.0905    12.470        2-3     13.625 /_  -90.9    1.0926
   -                       3       7.8568 /_  118.9    1.0913    12.470        3-1     13.603 /_  148.9    1.0908
261124294 ................ 1       7.8465 /_   -1.0    1.0899    12.470        1-2     13.571 /_   29.1    1.0883
   -                       2       7.8434 /_ -120.8    1.0894    12.470        2-3      13.61 /_  -90.9    1.0914
   -                       3       7.8478 /_  118.9      1.09    12.470        3-1     13.587 /_  148.9    1.0896
261124288 ................ 1       7.8461 /_   -1.0    1.0898    12.470        1-2     13.571 /_   29.1    1.0883
   -                       2        7.843 /_ -120.8    1.0894    12.470        2-3     13.609 /_  -90.9    1.0914
   -                       3       7.8474 /_  118.9      1.09    12.470        3-1     13.586 /_  148.9    1.0895
261124314 ................ 1       7.8483 /_   -1.0    1.0901    12.470        1-2     13.574 /_   29.1    1.0885
   -                       2       7.8449 /_ -120.8    1.0896    12.470        2-3     13.613 /_  -90.9    1.0916
   -                       3       7.8497 /_  118.9    1.0903    12.470        3-1      13.59 /_  148.9    1.0898
261123019 ................ 1       7.8482 /_   -1.0    1.0901    12.470        1-2     13.574 /_   29.1    1.0885
   -                       2       7.8448 /_ -120.8    1.0896    12.470        2-3     13.613 /_  -90.9    1.0916
   -                       3       7.8495 /_  118.9    1.0903    12.470        3-1      13.59 /_  148.9    1.0898
260745306 ................ 1       7.8566 /_   -1.0    1.0913    12.470        1-2     13.588 /_   29.1    1.0896
   -                       2       7.8513 /_ -120.8    1.0905    12.470        2-3     13.625 /_  -90.9    1.0926
   -                       3       7.8568 /_  118.9    1.0913    12.470        3-1     13.603 /_  148.9    1.0908
261124289 ................ 1       7.8461 /_   -1.0    1.0898    12.470        1-2     13.571 /_   29.1    1.0883
   -                       2        7.843 /_ -120.8    1.0894    12.470        2-3     13.609 /_  -90.9    1.0914
   -                       3       7.8474 /_  118.9      1.09    12.470        3-1     13.586 /_  148.9    1.0895
472684299 ................ 1       7.8482 /_   -1.0    1.0901    12.470        1-2     13.574 /_   29.1    1.0885
   -                       2       7.8448 /_ -120.8    1.0896    12.470        2-3     13.613 /_  -90.9    1.0916
   -                       3       7.8496 /_  118.9    1.0903    12.470        3-1      13.59 /_  148.9    1.0898
263514841 ................ 1       7.8548 /_   -1.0     1.091    12.470        1-2     13.584 /_   29.1    1.0894
   -                       2       7.8495 /_ -120.8    1.0903    12.470        2-3     13.622 /_  -90.9    1.0924
   -                       3       7.8554 /_  118.9    1.0911    12.470        3-1       13.6 /_  148.9    1.0906
260745329 ................ 1       7.8548 /_   -1.0     1.091    12.470        1-2     13.584 /_   29.1    1.0894
   -                       2       7.8495 /_ -120.8    1.0903    12.470        2-3     13.622 /_  -90.9    1.0924
   -                       3       7.8554 /_  118.9    1.0911    12.470        3-1       13.6 /_  148.9    1.0906
258850618 ................ 1       7.8549 /_   -1.0     1.091    12.470        1-2     13.585 /_   29.1    1.0894
   -                       2       7.8496 /_ -120.8    1.0903    12.470        2-3     13.622 /_  -90.9    1.0924
...
